grid_models/IEEE RTS 96 bus.RAW
@!IC,SBASE,REV,XFRRAT,NXFRAT,BASFRQ
0,  100.00, 35,     0,     0, 60.00     / PSS(R)E Xplore-35.3    MON, JAN 30 2023  14:17


GENERAL, THRSHZ=0.0001, PQBRAK=0.7, BLOWUP=5.0, MaxIsolLvls=4, CAMaxReptSln=20, ChkDupCntLbl=0
GAUSS, ITMX=100, ACCP=1.6, ACCQ=1.6, ACCM=1.0, TOL=0.0001
NEWTON, ITMXN=20, ACCN=1.0, TOLN=0.1, VCTOLQ=0.1, VCTOLV=0.00001, DVLIM=0.99, NDVFCT=0.99
ADJUST, ADJTHR=0.005, ACCTAP=1.0, TAPLIM=0.05, SWVBND=100.0, MXTPSS=99, MXSWIM=10
TYSL, ITMXTY=20, ACCTY=1.0, TOLTY=0.00001
SOLVER, FDNS, ACTAPS=0, AREAIN=0, PHSHFT=0, DCTAPS=1, SWSHNT=1, FLATST=0, VARLIM=99, NONDIV=0
RATING, 1, "RATE1 ", "RATING SET 1                    "
RATING, 2, "RATE2 ", "RATING SET 2                    "
RATING, 3, "RATE3 ", "RATING SET 3                    "
RATING, 4, "RATE4 ", "RATING SET 4                    "
RATING, 5, "RATE5 ", "RATING SET 5                    "
RATING, 6, "RATE6 ", "RATING SET 6                    "
RATING, 7, "RATE7 ", "RATING SET 7                    "
RATING, 8, "RATE8 ", "RATING SET 8                    "
RATING, 9, "RATE9 ", "RATING SET 9                    "
RATING,10, "RATE10", "RATING SET 10                   "
RATING,11, "RATE11", "RATING SET 11                   "
RATING,12, "RATE12", "RATING SET 12                   "
0 / END OF SYSTEM-WIDE DATA, BEGIN BUS DATA
@!   I,'NAME        ', BASKV, IDE,AREA,ZONE,OWNER, VM,        VA,    NVHI,   NVLO,   EVHI,   EVLO
   101,'ABEL        ', 138.0000,2,  11,  11,   1,1.01949,  37.5619,1.10000,0.90000,1.10000,0.90000
   102,'ADAMS       ', 138.0000,2,  11,  12,   1,1.02373,  37.4188,1.10000,0.90000,1.10000,0.90000
   103,'ADLER       ', 138.0000,1,  11,  11,   1,0.88001,  40.0402,1.10000,0.90000,1.10000,0.90000
   104,'AGRICOLA    ', 138.0000,1,  11,  11,   1,0.95449,  35.2548,1.10000,0.90000,1.10000,0.90000
   105,'ALKEN       ', 138.0000,1,  11,  11,   1,1.00932,  35.0491,1.10000,0.90000,1.10000,0.90000
   106,'ALBER       ', 138.0000,1,  11,  12,   1,1.11327,  31.6177,1.10000,0.90000,1.10000,0.90000
   107,'ALDER       ', 138.0000,2,  11,  12,   1,0.98876,  38.0375,1.10000,0.90000,1.10000,0.90000
   108,'ALGER       ', 138.0000,1,  11,  12,   1,0.95559,  34.0595,1.10000,0.90000,1.10000,0.90000
   109,'ALI         ', 138.0000,1,  11,  13,   1,0.93363,  38.0344,1.10000,0.90000,1.10000,0.90000
   110,'ALLEN       ', 138.0000,1,  11,  13,   1,1.02603,  35.7637,1.10000,0.90000,1.10000,0.90000
   111,'ANNA        ', 230.0000,1,  11,  13,   1,0.94188,  43.4439,1.10000,0.90000,1.10000,0.90000
   112,'ARCHER      ', 230.0000,1,  11,  13,   1,0.96925,  44.9525,1.10000,0.90000,1.10000,0.90000
   113,'ARNE        ', 230.0000,2,  12,  14,   1,0.97691,  47.5034,1.10000,0.90000,1.10000,0.90000
   114,'ARNOLD      ', 230.0000,2,  12,  16,   1,0.89118,  47.0234,1.10000,0.90000,1.10000,0.90000
   115,'ARTHUR      ', 230.0000,2,  12,  16,   1,0.85102,  61.3130,1.10000,0.90000,1.10000,0.90000
   116,'ASSER       ', 230.0000,2,  12,  16,   1,0.86816,  60.8079,1.10000,0.90000,1.10000,0.90000
   117,'ASTON       ', 230.0000,1,  12,  17,   1,0.86394,  69.1589,1.10000,0.90000,1.10000,0.90000
   118,'ASTOR       ', 230.0000,2,  12,  17,   1,0.86883,  72.0249,1.10000,0.90000,1.10000,0.90000
   119,'ATTAR       ', 230.0000,1,  12,  15,   1,0.90241,  57.4472,1.10000,0.90000,1.10000,0.90000
   120,'ATTILA      ', 230.0000,1,  12,  15,   1,0.94497,  57.1529,1.10000,0.90000,1.10000,0.90000
   121,'ATTLEE      ', 230.0000,2,  12,  17,   1,0.87822,  73.9487,1.10000,0.90000,1.10000,0.90000
   122,'AUBREY      ', 230.0000,2,  12,  17,   1,0.87389,  81.4432,1.10000,0.90000,1.10000,0.90000
   123,'AUSTEN      ', 230.0000,3,  12,  15,   1,1.00000,  58.5065,1.10000,0.90000,1.10000,0.90000
   124,'AVERY       ', 230.0000,1,  12,  16,   1,0.84113,  52.9616,1.10000,0.90000,1.10000,0.90000
0 / END OF BUS DATA, BEGIN LOAD DATA
@!   I,'ID',STAT,AREA,ZONE,      PL,        QL,        IP,        IQ,        YP,        YQ, OWNER,SCALE,INTRPT,  DGENP,     DGENQ,DGENF,'  LOAD TYPE '
   101,'1 ',   1,  11,  11,   108.000,    22.000,     0.000,     0.000,     0.000,     0.000,   1,    1,  0,     0.000,     0.000,    0,'            '
   102,'1 ',   1,  11,  12,    97.000,    20.000,     0.000,     0.000,     0.000,     0.000,   1,    1,  0,     0.000,     0.000,    0,'            '
   103,'1 ',   1,  11,  11,   180.000,    37.000,     0.000,     0.000,     0.000,     0.000,   1,    1,  0,     0.000,     0.000,    0,'            '
   104,'1 ',   1,  11,  11,    74.000,    15.000,     0.000,     0.000,     0.000,     0.000,   1,    1,  0,     0.000,     0.000,    0,'            '
   105,'1 ',   1,  11,  11,    71.000,    14.000,     0.000,     0.000,     0.000,     0.000,   1,    1,  0,     0.000,     0.000,    0,'            '
   106,'1 ',   1,  11,  12,   136.000,    28.000,     0.000,     0.000,     0.000,     0.000,   1,    1,  0,     0.000,     0.000,    0,'            '
   107,'1 ',   1,  11,  12,   125.000,    25.000,     0.000,     0.000,     0.000,     0.000,   1,    1,  0,     0.000,     0.000,    0,'            '
   108,'1 ',   1,  11,  12,   171.000,    35.000,     0.000,     0.000,     0.000,     0.000,   1,    1,  0,     0.000,     0.000,    0,'            '
   109,'1 ',   1,  11,  13,   175.000,    36.000,     0.000,     0.000,     0.000,     0.000,   1,    1,  0,     0.000,     0.000,    0,'            '
   110,'1 ',   1,  11,  13,   195.000,    40.000,     0.000,     0.000,     0.000,     0.000,   1,    1,  0,     0.000,     0.000,    0,'            '
   113,'1 ',   1,  12,  14,   265.000,    54.000,     0.000,     0.000,     0.000,     0.000,   1,    1,  0,     0.000,     0.000,    0,'            '
   114,'1 ',   1,  12,  16,   194.000,    39.000,     0.000,     0.000,     0.000,     0.000,   1,    1,  0,     0.000,     0.000,    0,'            '
   115,'1 ',   1,  12,  16,   317.000,    64.000,     0.000,     0.000,     0.000,     0.000,   1,    1,  0,     0.000,     0.000,    0,'            '
   116,'1 ',   1,  12,  16,   100.000,    20.000,     0.000,     0.000,     0.000,     0.000,   1,    1,  0,     0.000,     0.000,    0,'            '
   118,'1 ',   1,  12,  17,   333.000,    68.000,     0.000,     0.000,     0.000,     0.000,   1,    1,  0,     0.000,     0.000,    0,'            '
   119,'1 ',   1,  12,  15,   181.000,    37.000,     0.000,     0.000,     0.000,     0.000,   1,    1,  0,     0.000,     0.000,    0,'            '
   120,'1 ',   1,  12,  15,   128.000,    26.000,     0.000,     0.000,     0.000,     0.000,   1,    1,  0,     0.000,     0.000,    0,'            '
0 / END OF LOAD DATA, BEGIN FIXED SHUNT DATA
@!   I,'ID',STATUS,  GL,        BL
   106,' 1',1,     0.000,   100.000
0 / END OF FIXED SHUNT DATA, BEGIN GENERATOR DATA
@!   I,'ID',      PG,        QG,        QT,        QB,     VS,    IREG,NREG,     MBASE,     ZR,         ZX,         RT,         XT,     GTAP,STAT, RMPCT,      PT,        PB,BASLOD,O1,    F1,  O2,    F2,  O3,    F3,  O4,    F4,WMOD, WPF
   101,'1 ',   172.000,    28.200,    28.200,    28.200,1.00000,   101,   0,   100.000, 0.00000E+0, 1.00000E+0, 0.00000E+0, 0.00000E+0,1.00000,1,  100.0,  1000.000,     0.000, 0,   1,1.0000
   102,'1 ',   172.000,    14.000,    14.000,    14.000,1.00000,   102,   0,   100.000, 0.00000E+0, 1.00000E+0, 0.00000E+0, 0.00000E+0,1.00000,1,  100.0,  1000.000,     0.000, 0,   1,1.0000
   107,'1 ',   240.000,    51.600,    51.600,    51.600,1.00000,   107,   0,   100.000, 0.00000E+0, 1.00000E+0, 0.00000E+0, 0.00000E+0,1.00000,1,  100.0,  1000.000,     0.000, 0,   1,1.0000
   113,'1 ',   285.300,   122.000,   122.000,   122.000,1.00000,   113,   0,   100.000, 0.00000E+0, 1.00000E+0, 0.00000E+0, 0.00000E+0,1.00000,1,  100.0, 10000.000,     0.000, 0,   1,1.0000
   114,'1 ',     0.000,    13.700,    13.700,    13.700,1.00000,   114,   0,   100.000, 0.00000E+0, 1.00000E+0, 0.00000E+0, 0.00000E+0,1.00000,1,  100.0,  1000.000,     0.000, 0,   1,1.0000
   115,'1 ',   215.000,     0.000,     0.000,     0.000,1.00000,   115,   0,   100.000, 0.00000E+0, 1.00000E+0, 0.00000E+0, 0.00000E+0,1.00000,1,  100.0,  1000.000,     0.000, 0,   1,1.0000
   116,'1 ',   155.000,    25.220,    25.220,    25.220,1.00000,   116,   0,   100.000, 0.00000E+0, 1.00000E+0, 0.00000E+0, 0.00000E+0,1.00000,1,  100.0,  1000.000,     0.000, 0,   1,1.0000
   118,'1 ',   400.000,    25.220,    25.220,    25.220,1.00000,   118,   0,   100.000, 0.00000E+0, 1.00000E+0, 0.00000E+0, 0.00000E+0,1.00000,1,  100.0,  1000.000,     0.000, 0,   1,1.0000
   121,'1 ',   400.000,   108.200,   108.200,   108.200,1.00000,   121,   0,   100.000, 0.00000E+0, 1.00000E+0, 0.00000E+0, 0.00000E+0,1.00000,1,  100.0,  1000.000,     0.000, 0,   1,1.0000
   122,'1 ',   300.000,   -24.800,   -24.800,   -24.800,1.00000,   122,   0,   100.000, 0.00000E+0, 1.00000E+0, 0.00000E+0, 0.00000E+0,1.00000,1,  100.0,  1000.000,     0.000, 0,   1,1.0000
   123,'1 ',   587.979,   261.467,  9900.000, -9900.000,1.00000,   123,   0,   100.000, 0.00000E+0, 1.00000E+0, 0.00000E+0, 0.00000E+0,1.00000,1,  100.0,  1000.000,     0.000, 0,   1,1.0000
0 / END OF GENERATOR DATA, BEGIN BRANCH DATA
@!   I,     J,'CKT',      R,           X,       B,                   'N A M E'                 ,  RATE1,  RATE2,  RATE3,  RATE4,  RATE5,  RATE6,  RATE7,  RATE8,  RATE9, RATE10, RATE11, RATE12,   GI,      BI,      GJ,      BJ,STAT,MET, LEN,  O1,  F1,    O2,  F2,    O3,  F3,    O4,  F4
   101,   102,'1 ', 3.00000E-03, 1.40000E-02,0.46100,'                                        ', 175.00,   0.00,   0.00,   0.00,   0.00,   0.00,   0.00,   0.00,   0.00,   0.00,   0.00,   0.00, 0.00000, 0.00000, 0.00000, 0.00000,1,1,  0.00,   1,1.0000
   101,   103,'1 ', 5.50000E-02, 2.11000E-01,0.05700,'                                        ', 175.00,   0.00,   0.00,   0.00,   0.00,   0.00,   0.00,   0.00,   0.00,   0.00,   0.00,   0.00, 0.00000, 0.00000, 0.00000, 0.00000,1,1,  0.00,   1,1.0000
   101,   105,'1 ', 2.20000E-02, 8.50000E-02,0.02300,'                                        ', 175.00,   0.00,   0.00,   0.00,   0.00,   0.00,   0.00,   0.00,   0.00,   0.00,   0.00,   0.00, 0.00000, 0.00000, 0.00000, 0.00000,1,1,  0.00,   1,1.0000
   102,   104,'1 ', 3.30000E-02, 1.27000E-01,0.03400,'                                        ', 175.00,   0.00,   0.00,   0.00,   0.00,   0.00,   0.00,   0.00,   0.00,   0.00,   0.00,   0.00, 0.00000, 0.00000, 0.00000, 0.00000,1,1,  0.00,   1,1.0000
   102,   106,'1 ', 5.00000E-02, 1.92000E-01,0.05200,'                                        ', 175.00,   0.00,   0.00,   0.00,   0.00,   0.00,   0.00,   0.00,   0.00,   0.00,   0.00,   0.00, 0.00000, 0.00000, 0.00000, 0.00000,1,1,  0.00,   1,1.0000
   103,   109,'1 ', 3.10000E-02, 1.19000E-01,0.03200,'                                        ', 500.00,   0.00,   0.00,   0.00,   0.00,   0.00,   0.00,   0.00,   0.00,   0.00,   0.00,   0.00, 0.00000, 0.00000, 0.00000, 0.00000,1,1,  0.00,   1,1.0000
   103,   124,'1 ', 2.00000E-03, 8.40000E-02,0.00000,'                                        ', 400.00,   0.00,   0.00,   0.00,   0.00,   0.00,   0.00,   0.00,   0.00,   0.00,   0.00,   0.00, 0.00000, 0.00000, 0.00000, 0.00000,1,1,  0.00,   1,1.0000
   104,   109,'1 ', 2.70000E-02, 1.04000E-01,0.02800,'                                        ', 175.00,   0.00,   0.00,   0.00,   0.00,   0.00,   0.00,   0.00,   0.00,   0.00,   0.00,   0.00, 0.00000, 0.00000, 0.00000, 0.00000,1,1,  0.00,   1,1.0000
   105,   110,'1 ', 2.30000E-02, 8.80000E-02,0.02400,'                                        ', 175.00,   0.00,   0.00,   0.00,   0.00,   0.00,   0.00,   0.00,   0.00,   0.00,   0.00,   0.00, 0.00000, 0.00000, 0.00000, 0.00000,1,1,  0.00,   1,1.0000
   106,   110,'1 ', 1.40000E-02, 6.10000E-02,2.45900,'                                        ', 175.00,   0.00,   0.00,   0.00,   0.00,   0.00,   0.00,   0.00,   0.00,   0.00,   0.00,   0.00, 0.00000, 0.00000, 0.00000, 0.00000,1,1,  0.00,   1,1.0000
   107,   108,'1 ', 1.60000E-02, 6.10000E-02,0.01700,'                                        ',1500.00,   0.00,   0.00,   0.00,   0.00,   0.00,   0.00,   0.00,   0.00,   0.00,   0.00,   0.00, 0.00000, 0.00000, 0.00000, 0.00000,1,1,  0.00,   1,1.0000
   108,   109,'1 ', 4.30000E-02, 1.65000E-01,0.04500,'                                        ', 500.00,   0.00,   0.00,   0.00,   0.00,   0.00,   0.00,   0.00,   0.00,   0.00,   0.00,   0.00, 0.00000, 0.00000, 0.00000, 0.00000,1,1,  0.00,   1,1.0000
   108,   110,'1 ', 4.30000E-02, 1.65000E-01,0.04500,'                                        ', 500.00,   0.00,   0.00,   0.00,   0.00,   0.00,   0.00,   0.00,   0.00,   0.00,   0.00,   0.00, 0.00000, 0.00000, 0.00000, 0.00000,1,1,  0.00,   1,1.0000
   109,   111,'1 ', 2.00000E-03, 8.40000E-02,0.00000,'                                        ', 400.00,   0.00,   0.00,   0.00,   0.00,   0.00,   0.00,   0.00,   0.00,   0.00,   0.00,   0.00, 0.00000, 0.00000, 0.00000, 0.00000,1,1,  0.00,   1,1.0000
   109,   112,'1 ', 2.00000E-03, 8.40000E-02,0.00000,'                                        ', 400.00,   0.00,   0.00,   0.00,   0.00,   0.00,   0.00,   0.00,   0.00,   0.00,   0.00,   0.00, 0.00000, 0.00000, 0.00000, 0.00000,1,1,  0.00,   1,1.0000
   110,   111,'1 ', 2.00000E-03, 8.40000E-02,0.00000,'                                        ', 400.00,   0.00,   0.00,   0.00,   0.00,   0.00,   0.00,   0.00,   0.00,   0.00,   0.00,   0.00, 0.00000, 0.00000, 0.00000, 0.00000,1,1,  0.00,   1,1.0000
   110,   112,'1 ', 2.00000E-03, 8.40000E-02,0.00000,'                                        ', 400.00,   0.00,   0.00,   0.00,   0.00,   0.00,   0.00,   0.00,   0.00,   0.00,   0.00,   0.00, 0.00000, 0.00000, 0.00000, 0.00000,1,1,  0.00,   1,1.0000
   111,   113,'1 ', 6.00000E-03, 4.80000E-02,0.10000,'                                        ',2000.00,   0.00,   0.00,   0.00,   0.00,   0.00,   0.00,   0.00,   0.00,   0.00,   0.00,   0.00, 0.00000, 0.00000, 0.00000, 0.00000,1,1,  0.00,   1,1.0000
   111,   114,'1 ', 5.00000E-03, 4.20000E-02,0.08800,'                                        ',2000.00,   0.00,   0.00,   0.00,   0.00,   0.00,   0.00,   0.00,   0.00,   0.00,   0.00,   0.00, 0.00000, 0.00000, 0.00000, 0.00000,1,1,  0.00,   1,1.0000
   112,   113,'1 ', 6.00000E-03, 4.80000E-02,0.10000,'                                        ',2000.00,   0.00,   0.00,   0.00,   0.00,   0.00,   0.00,   0.00,   0.00,   0.00,   0.00,   0.00, 0.00000, 0.00000, 0.00000, 0.00000,1,1,  0.00,   1,1.0000
   112,   123,'1 ', 1.20000E-02, 9.70000E-02,0.20300,'                                        ', 750.00,   0.00,   0.00,   0.00,   0.00,   0.00,   0.00,   0.00,   0.00,   0.00,   0.00,   0.00, 0.00000, 0.00000, 0.00000, 0.00000,1,1,  0.00,   1,1.0000
   113,   123,'1 ', 1.10000E-02, 8.70000E-02,0.18200,'                                        ',2000.00,   0.00,   0.00,   0.00,   0.00,   0.00,   0.00,   0.00,   0.00,   0.00,   0.00,   0.00, 0.00000, 0.00000, 0.00000, 0.00000,1,1,  0.00,   1,1.0000
   114,   116,'1 ', 5.00000E-03, 5.90000E-02,0.08200,'                                        ', 750.00,   0.00,   0.00,   0.00,   0.00,   0.00,   0.00,   0.00,   0.00,   0.00,   0.00,   0.00, 0.00000, 0.00000, 0.00000, 0.00000,1,1,  0.00,   1,1.0000
   115,   116,'1 ', 2.00000E-03, 1.70000E-02,0.03600,'                                        ', 500.00,   0.00,   0.00,   0.00,   0.00,   0.00,   0.00,   0.00,   0.00,   0.00,   0.00,   0.00, 0.00000, 0.00000, 0.00000, 0.00000,1,1,  0.00,   1,1.0000
   115,   121,'1 ', 6.00000E-03, 4.90000E-02,0.10300,'                                        ', 500.00,   0.00,   0.00,   0.00,   0.00,   0.00,   0.00,   0.00,   0.00,   0.00,   0.00,   0.00, 0.00000, 0.00000, 0.00000, 0.00000,1,1,  0.00,   1,1.0000
   115,   124,'1 ', 7.00000E-03, 5.20000E-02,0.10900,'                                        ', 500.00,   0.00,   0.00,   0.00,   0.00,   0.00,   0.00,   0.00,   0.00,   0.00,   0.00,   0.00, 0.00000, 0.00000, 0.00000, 0.00000,1,1,  0.00,   1,1.0000
   116,   117,'1 ', 3.00000E-03, 2.60000E-02,0.05500,'                                        ', 750.00,   0.00,   0.00,   0.00,   0.00,   0.00,   0.00,   0.00,   0.00,   0.00,   0.00,   0.00, 0.00000, 0.00000, 0.00000, 0.00000,1,1,  0.00,   1,1.0000
   116,   119,'1 ', 3.00000E-03, 2.30000E-02,0.04900,'                                        ', 500.00,   0.00,   0.00,   0.00,   0.00,   0.00,   0.00,   0.00,   0.00,   0.00,   0.00,   0.00, 0.00000, 0.00000, 0.00000, 0.00000,1,1,  0.00,   1,1.0000
   117,   118,'1 ', 2.00000E-03, 1.40000E-02,0.03000,'                                        ', 750.00,   0.00,   0.00,   0.00,   0.00,   0.00,   0.00,   0.00,   0.00,   0.00,   0.00,   0.00, 0.00000, 0.00000, 0.00000, 0.00000,1,1,  0.00,   1,1.0000
   117,   122,'1 ', 1.40000E-02, 1.05000E-01,0.22100,'                                        ', 500.00,   0.00,   0.00,   0.00,   0.00,   0.00,   0.00,   0.00,   0.00,   0.00,   0.00,   0.00, 0.00000, 0.00000, 0.00000, 0.00000,1,1,  0.00,   1,1.0000
   118,   121,'1 ', 3.00000E-03, 2.60000E-02,0.05500,'                                        ', 500.00,   0.00,   0.00,   0.00,   0.00,   0.00,   0.00,   0.00,   0.00,   0.00,   0.00,   0.00, 0.00000, 0.00000, 0.00000, 0.00000,1,1,  0.00,   1,1.0000
   118,   121,'2 ', 3.00000E-03, 2.60000E-02,0.05500,'                                        ', 500.00,   0.00,   0.00,   0.00,   0.00,   0.00,   0.00,   0.00,   0.00,   0.00,   0.00,   0.00, 0.00000, 0.00000, 0.00000, 0.00000,1,1,  0.00,   1,1.0000
   119,   120,'1 ', 5.00000E-03, 4.00000E-02,0.08300,'                                        ', 500.00,   0.00,   0.00,   0.00,   0.00,   0.00,   0.00,   0.00,   0.00,   0.00,   0.00,   0.00, 0.00000, 0.00000, 0.00000, 0.00000,1,1,  0.00,   1,1.0000
   119,   120,'2 ', 5.00000E-03, 4.00000E-02,0.08300,'                                        ', 500.00,   0.00,   0.00,   0.00,   0.00,   0.00,   0.00,   0.00,   0.00,   0.00,   0.00,   0.00, 0.00000, 0.00000, 0.00000, 0.00000,1,1,  0.00,   1,1.0000
   120,   123,'1 ', 3.00000E-03, 2.20000E-02,0.04600,'                                        ', 750.00,   0.00,   0.00,   0.00,   0.00,   0.00,   0.00,   0.00,   0.00,   0.00,   0.00,   0.00, 0.00000, 0.00000, 0.00000, 0.00000,1,1,  0.00,   1,1.0000
   121,   122,'1 ', 9.00000E-03, 6.80000E-02,0.14200,'                                        ', 500.00,   0.00,   0.00,   0.00,   0.00,   0.00,   0.00,   0.00,   0.00,   0.00,   0.00,   0.00, 0.00000, 0.00000, 0.00000, 0.00000,1,1,  0.00,   1,1.0000
0 / END OF BRANCH DATA, BEGIN SYSTEM SWITCHING DEVICE DATA
@!   I,     J,'CKT',          X,  RATE1,  RATE2,  RATE3,  RATE4,  RATE5,  RATE6,  RATE7,  RATE8,  RATE9, RATE10, RATE11, RATE12, STAT,NSTAT,  MET,STYPE,'NAME'
0 / END OF SYSTEM SWITCHING DEVICE DATA, BEGIN TRANSFORMER DATA
@!   I,     J,     K,'CKT',CW,CZ,CM,     MAG1,        MAG2,NMETR,               'N A M E',               STAT,O1,  F1,    O2,  F2,    O3,  F3,    O4,  F4,     'VECGRP', ZCOD
@!   R1-2,       X1-2, SBASE1-2,     R2-3,       X2-3, SBASE2-3,     R3-1,       X3-1, SBASE3-1, VMSTAR,   ANSTAR
@!WINDV1, NOMV1,   ANG1, RATE1-1, RATE1-2, RATE1-3, RATE1-4, RATE1-5, RATE1-6, RATE1-7, RATE1-8, RATE1-9,RATE1-10,RATE1-11,RATE1-12,COD1,CONT1,NOD1,  RMA1,   RMI1,   VMA1,   VMI1, NTP1,TAB1, CR1,    CX1,  CNXA1
@!WINDV2, NOMV2,   ANG2, RATE2-1, RATE2-2, RATE2-3, RATE2-4, RATE2-5, RATE2-6, RATE2-7, RATE2-8, RATE2-9,RATE2-10,RATE2-11,RATE2-12,COD2,CONT2,NOD2,  RMA2,   RMI2,   VMA2,   VMI2, NTP2,TAB2, CR2,    CX2,  CNXA2
@!WINDV3, NOMV3,   ANG3, RATE3-1, RATE3-2, RATE3-3, RATE3-4, RATE3-5, RATE3-6, RATE3-7, RATE3-8, RATE3-9,RATE3-10,RATE3-11,RATE3-12,COD3,CONT3,NOD3,  RMA3,   RMI3,   VMA3,   VMI3, NTP3,TAB3, CR3,    CX3,  CNXA3
0 / END OF TRANSFORMER DATA, BEGIN AREA DATA
@! I,   ISW,    PDES,     PTOL,    'ARNAME'
  11,     0,    0.000,    1.000,'11          '
  12,     0,    0.000,    1.000,'12          '
0 / END OF AREA DATA, BEGIN TWO-TERMINAL DC DATA
@!  'NAME',   MDC,    RDC,     SETVL,    VSCHD,    VCMOD,    RCOMP,   DELTI,METER   DCVMIN,CCCITMX,CCCACC
@! IPR,NBR,  ANMXR,  ANMNR,   RCR,    XCR,   EBASR,  TRR,    TAPR,   TMXR,   TMNR,   STPR,    ICR,NDR,   IFR,   ITR,'IDR', XCAPR
@! IPI,NBI,  ANMXI,  ANMNI,   RCI,    XCI,   EBASI,  TRI,    TAPI,   TMXI,   TMNI,   STPI,    ICI,NDI,   IFI,   ITI,'IDI', XCAPI
0 / END OF TWO-TERMINAL DC DATA, BEGIN VSC DC LINE DATA
@!  'NAME',   MDC,  RDC,   O1,  F1,    O2,  F2,    O3,  F3,    O4,  F4
@!IBUS,TYPE,MODE,  DCSET,  ACSET,  ALOSS,  BLOSS,MINLOSS,  SMAX,   IMAX,   PWF,     MAXQ,   MINQ, VSREG,NREG, RMPCT
0 / END OF VSC DC LINE DATA, BEGIN IMPEDANCE CORRECTION DATA
@!I,  T1,   Re(F1), Im(F1),   T2,   Re(F2), Im(F2),   T3,   Re(F3), Im(F3),   T4,   Re(F4), Im(F4),   T5,   Re(F5), Im(F5),   T6,   Re(F6), Im(F6)
@!    T7,   Re(F7), Im(F7),   T8,   Re(F8), Im(F8),   T9,   Re(F9), Im(F9),   T10, Re(F10),Im(F10),   T11, Re(F11),Im(F11),   T12, Re(F12),Im(F12)
@!      ...
0 / END OF IMPEDANCE CORRECTION DATA, BEGIN MULTI-TERMINAL DC DATA
@!  'NAME',    NCONV,NDCBS,NDCLN,  MDC, VCONV,   VCMOD, VCONVN
@!  IB, N,  ANGMX,  ANGMN,   RC,     XC,     EBAS,   TR,    TAP,    TPMX,   TPMN,   TSTP,   SETVL,   DCPF,  MARG,CNVCOD
@!IDC, IB,AREA,ZONE,   'DCNAME',  IDC2, RGRND,OWNER
@!IDC,JDC,'DCCKT',MET,  RDC,      LDC
0 / END OF MULTI-TERMINAL DC DATA, BEGIN MULTI-SECTION LINE DATA
@!   I,     J,'ID',MET,DUM1,  DUM2,  DUM3,  DUM4,  DUM5,  DUM6,  DUM7,  DUM8,  DUM9
0 / END OF MULTI-SECTION LINE DATA, BEGIN ZONE DATA
@! I,   'ZONAME'
  11,'11          '
  12,'12          '
  13,'13          '
  14,'14          '
  15,'15          '
  16,'16          '
  17,'17          '
0 / END OF ZONE DATA, BEGIN INTER-AREA TRANSFER DATA
@!ARFROM,ARTO,'TRID',PTRAN
0 / END OF INTER-AREA TRANSFER DATA, BEGIN OWNER DATA
@! I,   'OWNAME'
   1,'1           '
0 / END OF OWNER DATA, BEGIN FACTS DEVICE DATA
@!  'NAME',         I,     J,MODE,PDES,   QDES,  VSET,   SHMX,   TRMX,   VTMN,   VTMX,   VSMX,    IMX,   LINX,   RMPCT,OWNER,  SET1,    SET2,VSREF, FCREG,NREG,   'MNAME'
0 / END OF FACTS DEVICE DATA, BEGIN SWITCHED SHUNT DATA
@!   I,'ID',MODSW,ADJM,ST, VSWHI,  VSWLO, SWREG,NREG, RMPCT,   'RMIDNT',     BINIT,S1,N1,    B1, S2,N2,    B2, S3,N3,    B3, S4,N4,    B4, S5,N5,    B5, S6,N6,    B6, S7,N7,    B7, S8,N8,    B8
0 / END OF SWITCHED SHUNT DATA, BEGIN GNE DATA
@!  'NAME',        'MODEL',     NTERM,BUS1...BUSNTERM,NREAL,NINTG,NCHAR
@!ST,OWNER,NMETR
@! REAL1...REAL(MIN(10,NREAL))
@! INTG1...INTG(MIN(10,NINTG))
@! CHAR1...CHAR(MIN(10,NCHAR))
0 / END OF GNE DATA, BEGIN INDUCTION MACHINE DATA
@!   I,'ID',ST,SC,DC,AREA,ZONE,OWNER,TC,BC, MBASE,RATEKV,PC,  PSET,     H,      A,      B,      D,      E,     RA,        XA,        XM,        R1,        X1,        R2,        X2,        X3,       E1,    SE1,   E2,    SE2,   IA1,   IA2, XAMULT
0 / END OF INDUCTION MACHINE DATA, BEGIN SUBSTATION DATA
0 / END OF SUBSTATION DATA
Q
